<?xml version="1.0" encoding="UTF-8"?>

<!-- generated on 2024-07-07 20:20:31 by Eclipse SUMO netedit Version 1.20.0
<configuration xmlns:xsi="http://www.w3.org/2001/XMLSchema-instance" xsi:noNamespaceSchemaLocation="http://sumo.dlr.de/xsd/neteditConfiguration.xsd">

    <input>
        <sumo-net-file value="/Users/leonbuena/xquartzMaps/fa1.2/map3.net.xml"/>
    </input>

    <output>
        <output-file value="/Users/leonbuena/xquartzMaps/fa1.2/map3.net.xml"/>
    </output>

    <processing>
        <geometry.min-radius.fix.railways value="false"/>
        <geometry.max-grade.fix value="false"/>
        <offset.disable-normalization value="true"/>
        <lefthand value="0"/>
    </processing>

    <junctions>
        <no-turnarounds value="true"/>
        <junctions.corner-detail value="5"/>
        <junctions.limit-turn-speed value="5.50"/>
        <rectangular-lane-cut value="0"/>
    </junctions>

    <pedestrian>
        <walkingareas value="0"/>
    </pedestrian>

</configuration>
-->

<net version="1.20" junctionCornerDetail="5" limitTurnSpeed="5.50" xmlns:xsi="http://www.w3.org/2001/XMLSchema-instance" xsi:noNamespaceSchemaLocation="http://sumo.dlr.de/xsd/net_file.xsd">

    <location netOffset="0.00,0.00" convBoundary="-700.00,-3000.00,3700.00,300.00" origBoundary="-10000000000.00,-10000000000.00,10000000000.00,10000000000.00" projParameter="!"/>

    <edge id=":J2_0" function="internal">
        <lane id=":J2_0_0" index="0" speed="6.51" length="9.03" shape="-93.81,101.60 -96.26,101.95 -98.01,103.00 -99.06,104.75 -99.41,107.20"/>
    </edge>
    <edge id=":J2_1" function="internal">
        <lane id=":J2_1_0" index="0" speed="13.89" length="14.59" shape="-93.81,101.60 -108.40,101.57"/>
    </edge>
    <edge id=":J2_2" function="internal">
        <lane id=":J2_2_0" index="0" speed="8.04" length="4.14" shape="-93.81,101.60 -97.74,101.05 -97.89,100.97"/>
    </edge>
    <edge id=":J2_10" function="internal">
        <lane id=":J2_10_0" index="0" speed="8.04" length="10.20" shape="-97.89,100.97 -100.55,99.40 -102.24,96.65 -102.80,92.80"/>
    </edge>
    <edge id=":J2_3" function="internal">
        <lane id=":J2_3_0" index="0" speed="6.58" length="9.24" shape="-99.67,92.80 -99.31,95.25 -98.21,97.00 -96.37,98.05 -93.81,98.40"/>
    </edge>
    <edge id=":J2_4" function="internal">
        <lane id=":J2_4_0" index="0" speed="13.89" length="14.58" shape="-99.67,92.80 -99.41,107.20"/>
        <lane id=":J2_4_1" index="1" speed="13.89" length="14.58" shape="-99.67,92.80 -100.13,96.13 -101.14,99.12 -102.15,102.55 -102.61,107.20"/>
    </edge>
    <edge id=":J2_6" function="internal">
        <lane id=":J2_6_0" index="0" speed="7.98" length="14.11" shape="-99.67,92.80 -100.22,96.64 -101.85,99.38 -104.58,101.02 -108.40,101.57"/>
    </edge>
    <edge id=":J2_7" function="internal">
        <lane id=":J2_7_0" index="0" speed="6.51" length="9.05" shape="-108.40,98.43 -105.95,98.08 -104.20,97.02 -103.15,95.27 -102.80,92.80"/>
    </edge>
    <edge id=":J2_8" function="internal">
        <lane id=":J2_8_0" index="0" speed="13.89" length="14.59" shape="-108.40,98.43 -93.81,98.40"/>
    </edge>
    <edge id=":J2_9" function="internal">
        <lane id=":J2_9_0" index="0" speed="7.36" length="2.59" shape="-108.40,98.43 -105.87,98.98"/>
    </edge>
    <edge id=":J2_11" function="internal">
        <lane id=":J2_11_0" index="0" speed="7.36" length="9.24" shape="-105.87,98.98 -104.06,100.62 -102.97,103.36 -102.61,107.20"/>
    </edge>
    <edge id=":J3_0" function="internal">
        <lane id=":J3_0_0" index="0" speed="6.51" length="9.03" shape="1910.40,101.60 1907.95,101.95 1906.20,103.00 1905.15,104.75 1904.80,107.20"/>
    </edge>
    <edge id=":J3_1" function="internal">
        <lane id=":J3_1_0" index="0" speed="13.89" length="17.53" shape="1910.40,101.60 1892.87,101.60"/>
    </edge>
    <edge id=":J3_2" function="internal">
        <lane id=":J3_2_0" index="0" speed="8.60" length="5.54" shape="1910.40,101.60 1905.15,101.04 1904.91,100.94"/>
    </edge>
    <edge id=":J3_10" function="internal">
        <lane id=":J3_10_0" index="0" speed="8.60" length="11.32" shape="1904.91,100.94 1901.42,99.37 1899.23,96.59 1898.57,92.69"/>
    </edge>
    <edge id=":J3_3" function="internal">
        <lane id=":J3_3_0" index="0" speed="7.24" length="11.64" shape="1901.78,92.76 1902.26,95.23 1903.86,96.99 1906.58,98.05 1910.40,98.40"/>
    </edge>
    <edge id=":J3_4" function="internal">
        <lane id=":J3_4_0" index="0" speed="13.89" length="14.63" shape="1901.78,92.76 1902.20,96.09 1903.24,99.09 1904.31,102.54 1904.80,107.20"/>
        <lane id=":J3_4_1" index="1" speed="13.89" length="14.63" shape="1901.78,92.76 1901.60,107.20"/>
    </edge>
    <edge id=":J3_6" function="internal">
        <lane id=":J3_6_0" index="0" speed="8.08" length="14.23" shape="1901.78,92.76 1901.14,96.63 1899.44,99.39 1896.69,101.05 1892.87,101.60"/>
    </edge>
    <edge id=":J3_7" function="internal">
        <lane id=":J3_7_0" index="0" speed="6.60" length="9.15" shape="1892.87,98.40 1895.32,98.04 1897.08,96.97 1898.16,95.19 1898.57,92.69"/>
    </edge>
    <edge id=":J3_8" function="internal">
        <lane id=":J3_8_0" index="0" speed="13.89" length="17.53" shape="1892.87,98.40 1910.40,98.40"/>
    </edge>
    <edge id=":J3_9" function="internal">
        <lane id=":J3_9_0" index="0" speed="7.99" length="4.03" shape="1892.87,98.40 1896.69,98.95 1896.84,99.04"/>
    </edge>
    <edge id=":J3_11" function="internal">
        <lane id=":J3_11_0" index="0" speed="7.99" length="10.10" shape="1896.84,99.04 1899.42,100.60 1901.05,103.35 1901.60,107.20"/>
    </edge>
    <edge id=":J4_0" function="internal">
        <lane id=":J4_0_0" index="0" speed="6.79" length="9.66" shape="2907.09,-2898.40 2904.65,-2898.01 2902.87,-2896.82 2901.77,-2894.85 2901.32,-2892.09"/>
    </edge>
    <edge id=":J4_1" function="internal">
        <lane id=":J4_1_0" index="0" speed="13.89" length="16.98" shape="2907.09,-2898.40 2903.03,-2898.28 2898.61,-2897.98 2894.20,-2897.58 2890.16,-2897.15"/>
    </edge>
    <edge id=":J4_2" function="internal">
        <lane id=":J4_2_0" index="0" speed="7.98" length="3.84" shape="2907.09,-2898.40 2903.29,-2898.95"/>
    </edge>
    <edge id=":J4_10" function="internal">
        <lane id=":J4_10_0" index="0" speed="7.98" length="10.26" shape="2903.29,-2898.95 2900.57,-2900.60 2898.94,-2903.35 2898.40,-2907.20"/>
    </edge>
    <edge id=":J4_3" function="internal">
        <lane id=":J4_3_0" index="0" speed="6.98" length="9.67" shape="2889.80,-2900.40 2892.16,-2901.05 2893.85,-2902.40 2894.86,-2904.45 2895.20,-2907.20"/>
    </edge>
    <edge id=":J4_4" function="internal">
        <lane id=":J4_4_0" index="0" speed="13.89" length="17.34" shape="2889.80,-2900.40 2893.90,-2900.82 2898.43,-2901.20 2902.98,-2901.49 2907.09,-2901.60"/>
    </edge>
    <edge id=":J4_5" function="internal">
        <lane id=":J4_5_0" index="0" speed="8.22" length="5.53" shape="2889.80,-2900.40 2894.97,-2900.37 2895.31,-2900.24"/>
    </edge>
    <edge id=":J4_11" function="internal">
        <lane id=":J4_11_0" index="0" speed="8.22" length="11.18" shape="2895.31,-2900.24 2898.61,-2898.98 2900.73,-2896.22 2901.32,-2892.09"/>
    </edge>
    <edge id=":J4_6" function="internal">
        <lane id=":J4_6_0" index="0" speed="6.77" length="10.96" shape="2898.12,-2892.21 2897.70,-2894.71 2896.24,-2896.37 2893.72,-2897.18 2890.16,-2897.15"/>
    </edge>
    <edge id=":J4_7" function="internal">
        <lane id=":J4_7_0" index="0" speed="13.89" length="15.17" shape="2898.12,-2892.21 2897.74,-2895.58 2896.73,-2898.71 2895.68,-2902.34 2895.20,-2907.20"/>
        <lane id=":J4_7_1" index="1" speed="13.89" length="15.17" shape="2898.12,-2892.21 2898.40,-2907.20"/>
    </edge>
    <edge id=":J4_9" function="internal">
        <lane id=":J4_9_0" index="0" speed="8.24" length="14.69" shape="2898.12,-2892.21 2898.81,-2896.32 2900.53,-2899.25 2903.29,-2901.01 2907.09,-2901.60"/>
    </edge>
    <edge id=":J5_0" function="internal">
        <lane id=":J5_0_0" index="0" speed="6.51" length="9.03" shape="-104.72,-1893.08 -105.07,-1895.53 -106.12,-1897.28 -107.87,-1898.33 -110.32,-1898.68"/>
    </edge>
    <edge id=":J5_1" function="internal">
        <lane id=":J5_1_0" index="0" speed="13.89" length="15.69" shape="-104.72,-1893.08 -104.18,-1908.51"/>
        <lane id=":J5_1_1" index="1" speed="13.89" length="15.69" shape="-104.72,-1893.08 -104.14,-1896.48 -102.87,-1899.68 -101.59,-1903.44 -100.98,-1908.48"/>
    </edge>
    <edge id=":J5_3" function="internal">
        <lane id=":J5_3_0" index="0" speed="8.30" length="15.40" shape="-104.72,-1893.08 -104.14,-1897.37 -102.40,-1900.43 -99.49,-1902.26 -95.41,-1902.86"/>
    </edge>
    <edge id=":J5_4" function="internal">
        <lane id=":J5_4_0" index="0" speed="6.92" length="10.39" shape="-95.42,-1899.74 -98.14,-1899.33 -100.09,-1898.08 -101.25,-1896.00 -101.64,-1893.08"/>
    </edge>
    <edge id=":J5_5" function="internal">
        <lane id=":J5_5_0" index="0" speed="13.89" length="14.94" shape="-95.42,-1899.74 -110.32,-1898.68"/>
    </edge>
    <edge id=":J5_6" function="internal">
        <lane id=":J5_6_0" index="0" speed="7.29" length="2.20" shape="-95.42,-1899.74 -97.57,-1900.22"/>
    </edge>
    <edge id=":J5_10" function="internal">
        <lane id=":J5_10_0" index="0" speed="7.29" length="9.46" shape="-97.57,-1900.22 -97.88,-1900.29 -99.62,-1901.93 -100.65,-1904.66 -100.98,-1908.48"/>
    </edge>
    <edge id=":J5_7" function="internal">
        <lane id=":J5_7_0" index="0" speed="6.96" length="10.43" shape="-110.32,-1901.71 -107.65,-1902.13 -105.74,-1903.41 -104.58,-1905.53 -104.18,-1908.51"/>
    </edge>
    <edge id=":J5_8" function="internal">
        <lane id=":J5_8_0" index="0" speed="13.89" length="14.95" shape="-110.32,-1901.71 -95.41,-1902.86"/>
    </edge>
    <edge id=":J5_9" function="internal">
        <lane id=":J5_9_0" index="0" speed="7.94" length="2.58" shape="-110.32,-1901.71 -107.77,-1901.35"/>
    </edge>
    <edge id=":J5_11" function="internal">
        <lane id=":J5_11_0" index="0" speed="7.94" length="11.37" shape="-107.77,-1901.35 -106.53,-1901.17 -103.81,-1899.55 -102.18,-1896.86 -101.64,-1893.08"/>
    </edge>

    <edge id="-E10" from="J10" to="J3" priority="-1">
        <lane id="-E10_0" index="0" speed="13.89" length="689.60" shape="2600.00,101.60 1910.40,101.60"/>
    </edge>
    <edge id="-E11" from="J5" to="J12" priority="-1" shape="-105.98,-1900.28 -700.00,-1900.00">
        <lane id="-E11_0" index="0" speed="13.89" length="589.68" shape="-110.32,-1898.68 -700.00,-1898.40"/>
    </edge>
    <edge id="-E14" from="J15" to="J4" priority="-1">
        <lane id="-E14_0" index="0" speed="13.89" length="792.91" shape="3700.00,-2898.40 2907.09,-2898.40"/>
    </edge>
    <edge id="-E3" from="J4" to="J3" priority="-1" length="3000.00" shape="2900.00,-2900.00 2822.37,-709.90 1902.17,10.94 1900.00,100.00">
        <lane id="-E3_0" index="0" speed="13.89" length="3000.00" shape="2901.32,-2892.09 2823.94,-709.10 1903.75,11.73 1901.78,92.76"/>
    </edge>
    <edge id="-E4" from="J4" to="J5" priority="-1" length="3000.00" shape="2890.16,-2898.76 1241.93,-2716.16 -1.37,-1901.09 -99.00,-1901.35">
        <lane id="-E4_0" index="0" speed="13.89" length="3000.00" shape="2890.16,-2897.15 1242.49,-2714.61 -0.89,-1899.49 -95.42,-1899.74"/>
    </edge>
    <edge id="-E5" from="J2" to="J5" priority="-1" length="2000.00" shape="-101.20,97.23 -103.12,-1895.70">
        <lane id="-E5_0" index="0" speed="13.89" length="2000.00" shape="-102.80,92.80 -104.72,-1893.08"/>
    </edge>
    <edge id="-E6" from="J3" to="J2" priority="-1" length="2000.00" shape="1896.86,100.00 -100.00,100.00">
        <lane id="-E6_0" index="0" speed="13.89" length="2000.00" shape="1892.87,101.60 -93.81,101.60"/>
    </edge>
    <edge id="-E8" from="J2" to="J8" priority="-1" shape="-103.91,99.97 -500.00,100.00">
        <lane id="-E8_0" index="0" speed="13.89" length="391.60" shape="-108.40,101.57 -500.00,101.60"/>
    </edge>
    <edge id="E0" from="J2" to="J0" priority="-1" shape="-104.21,103.18 -104.31,259.00">
        <lane id="E0_0" index="0" speed="13.89" length="151.80" shape="-99.41,107.20 -99.51,259.00"/>
        <lane id="E0_1" index="1" speed="13.89" length="151.80" shape="-102.61,107.20 -102.71,259.00"/>
    </edge>
    <edge id="E1" from="J3" to="J1" priority="-1">
        <lane id="E1_0" index="0" speed="13.89" length="192.80" shape="1904.80,107.20 1904.80,300.00"/>
        <lane id="E1_1" index="1" speed="13.89" length="192.80" shape="1901.60,107.20 1901.60,300.00"/>
    </edge>
    <edge id="E10" from="J3" to="J10" priority="-1" shape="1900.00,100.00 2100.00,100.00 2600.00,100.00">
        <lane id="E10_0" index="0" speed="13.89" length="689.60" shape="1910.40,98.40 2100.00,98.40 2600.00,98.40"/>
    </edge>
    <edge id="E11" from="J12" to="J5" priority="-1" shape="-700.00,-1900.00 -106.26,-1900.11">
        <lane id="E11_0" index="0" speed="13.89" length="589.68" shape="-700.00,-1901.60 -110.32,-1901.71"/>
    </edge>
    <edge id="E14" from="J4" to="J15" priority="-1">
        <lane id="E14_0" index="0" speed="13.89" length="792.91" shape="2907.09,-2901.60 3700.00,-2901.60"/>
    </edge>
    <edge id="E2" from="J4" to="J6" priority="-1">
        <lane id="E2_0" index="0" speed="13.89" length="92.80" shape="2895.20,-2907.20 2895.20,-3000.00"/>
        <lane id="E2_1" index="1" speed="13.89" length="92.80" shape="2898.40,-2907.20 2898.40,-3000.00"/>
    </edge>
    <edge id="E3" from="J3" to="J4" priority="-1" length="3000.00" shape="1900.00,100.00 1902.09,11.07 2822.48,-709.94 2900.00,-2900.00">
        <lane id="E3_0" index="0" speed="13.89" length="3000.00" shape="1898.57,92.69 1900.51,10.28 2820.91,-710.74 2898.12,-2892.21"/>
    </edge>
    <edge id="E4" from="J5" to="J4" priority="-1" shape="-99.17,-1901.27 -1.47,-1900.94 1241.93,-2716.29 2900.75,-2900.00">
        <lane id="E4_0" index="0" speed="13.89" length="3238.77" shape="-95.41,-1902.86 -1.95,-1902.54 1241.37,-2717.84 2889.80,-2900.40"/>
    </edge>
    <edge id="E5" from="J5" to="J2" priority="-1" length="2000.00" shape="-103.24,-1895.56 -101.27,96.92">
        <lane id="E5_0" index="0" speed="13.89" length="2000.00" shape="-101.64,-1893.08 -99.67,92.80"/>
    </edge>
    <edge id="E6" from="J2" to="J3" priority="-1" length="2000.00">
        <lane id="E6_0" index="0" speed="13.89" length="2000.00" shape="-93.81,98.40 1892.87,98.40"/>
    </edge>
    <edge id="E7" from="J5" to="J9" priority="-1" shape="-99.41,-1904.18 -98.40,-2032.12">
        <lane id="E7_0" index="0" speed="13.89" length="123.65" shape="-104.18,-1908.51 -103.20,-2032.16"/>
        <lane id="E7_1" index="1" speed="13.89" length="123.65" shape="-100.98,-1908.48 -100.00,-2032.13"/>
    </edge>
    <edge id="E8" from="J8" to="J2" priority="-1" shape="-500.00,100.00 -103.91,100.03">
        <lane id="E8_0" index="0" speed="13.89" length="391.60" shape="-500.00,98.40 -108.40,98.43"/>
    </edge>

    <tlLogic id="J2" type="static" programID="0" offset="0">
        <phase duration="60" state="GGgrrrrGGg"/>
        <phase duration="3"  state="yyyrrrrGyy"/>
        <phase duration="30" state="rrrGGGGGrr"/>
        <phase duration="3"  state="rrryyyyGrr"/>
    </tlLogic>
    <tlLogic id="J3" type="static" programID="0" offset="0">
        <phase duration="60" state="GGgrrrrGGg"/>
        <phase duration="3"  state="yyyrrrrGyy"/>
        <phase duration="30" state="rrrGGGGGrr"/>
        <phase duration="3"  state="rrryyyyGrr"/>
    </tlLogic>
    <tlLogic id="J3" type="static" programID="1" offset="0">
        <phase duration="60" state="GGgrrrrGGg"/>
        <phase duration="3"  state="yyyrrrrGyy"/>
        <phase duration="30" state="rrrGGGGGrr"/>
        <phase duration="3"  state="rrryyyyGrr"/>
    </tlLogic>
    <tlLogic id="J4" type="static" programID="0" offset="0">
        <phase duration="60" state="GGgGGgrrrr"/>
        <phase duration="3"  state="Gyyyyyrrrr"/>
        <phase duration="30" state="GrrrrrGGGG"/>
        <phase duration="30" state="Grrrrryyyy"/>
    </tlLogic>
    <tlLogic id="J5" type="static" programID="0" offset="0">
        <phase duration="60" state="rrrrGGgGGg"/>
        <phase duration="3"  state="rrrrGyyyyy"/>
        <phase duration="300" state="GGGGGrrrrr"/>
        <phase duration="30" state="yyyyGrrrrr"/>
    </tlLogic>

    <junction id="J0" type="dead_end" x="-104.31" y="259.00" incLanes="E0_0 E0_1" intLanes="" shape="-97.91,259.00 -104.31,259.00"/>
    <junction id="J1" type="dead_end" x="1900.00" y="300.00" incLanes="E1_0 E1_1" intLanes="" shape="1906.40,300.00 1900.00,300.00"/>
    <junction id="J10" type="dead_end" x="2600.00" y="100.00" incLanes="E10_0" intLanes="" shape="2600.00,100.00 2600.00,96.80 2600.00,100.00"/>
    <junction id="J12" type="dead_end" x="-700.00" y="-1900.00" incLanes="-E11_0" intLanes="" shape="-700.00,-1900.00 -700.00,-1896.80 -700.00,-1900.00"/>
    <junction id="J15" type="dead_end" x="3700.00" y="-2900.00" incLanes="E14_0" intLanes="" shape="3700.00,-2900.00 3700.00,-2903.20 3700.00,-2900.00"/>
    <junction id="J2" type="traffic_light" x="-100.00" y="100.00" incLanes="-E6_0 E5_0 E8_0" intLanes=":J2_0_0 :J2_1_0 :J2_10_0 :J2_3_0 :J2_4_0 :J2_4_1 :J2_6_0 :J2_7_0 :J2_8_0 :J2_11_0" shape="-93.81,103.20 -93.81,96.80 -96.18,96.36 -97.01,95.80 -97.60,95.02 -97.95,94.02 -98.07,92.80 -104.40,92.81 -104.85,95.04 -105.40,95.82 -106.18,96.38 -107.18,96.72 -108.40,96.83 -108.40,103.17 -106.07,103.62 -105.26,104.18 -104.68,104.96 -104.33,105.97 -104.21,107.20 -97.81,107.20 -97.37,104.98 -96.81,104.20 -96.03,103.64 -95.03,103.31">
        <request index="0" response="0000000000" foes="0000110000" cont="0"/>
        <request index="1" response="0000000000" foes="1001110000" cont="0"/>
        <request index="2" response="0110000000" foes="0111110000" cont="1"/>
        <request index="3" response="0100000000" foes="0100000000" cont="0"/>
        <request index="4" response="1100000111" foes="1100000111" cont="0"/>
        <request index="5" response="1100000111" foes="1100000111" cont="0"/>
        <request index="6" response="1100000110" foes="1100000110" cont="0"/>
        <request index="7" response="0000000000" foes="0000000100" cont="0"/>
        <request index="8" response="0000000000" foes="0001111100" cont="0"/>
        <request index="9" response="0000000010" foes="0001110010" cont="1"/>
    </junction>
    <junction id="J3" type="traffic_light" x="1900.00" y="100.00" incLanes="-E10_0 -E3_0 E6_0" intLanes=":J3_0_0 :J3_1_0 :J3_10_0 :J3_3_0 :J3_4_0 :J3_4_1 :J3_6_0 :J3_7_0 :J3_8_0 :J3_11_0" shape="1900.00,107.20 1906.40,107.20 1906.84,104.98 1907.40,104.20 1908.18,103.64 1909.18,103.31 1910.40,103.20 1910.40,96.80 1908.23,96.69 1906.45,96.36 1905.08,95.80 1904.11,95.02 1903.54,94.02 1903.38,92.80 1896.97,92.65 1896.47,94.96 1895.90,95.76 1895.11,96.34 1894.10,96.68 1892.87,96.80 1892.87,103.20 1895.05,103.31 1896.83,103.64 1898.22,104.20 1899.21,104.98 1899.80,105.98">
        <request index="0" response="0000000000" foes="0000110000" cont="0"/>
        <request index="1" response="0000000000" foes="1001110000" cont="0"/>
        <request index="2" response="1110000000" foes="1111110000" cont="1"/>
        <request index="3" response="0100000000" foes="0100000000" cont="0"/>
        <request index="4" response="1100000111" foes="1100000111" cont="0"/>
        <request index="5" response="1100000111" foes="1100000111" cont="0"/>
        <request index="6" response="1100000110" foes="1100000110" cont="0"/>
        <request index="7" response="0000000000" foes="0000000100" cont="0"/>
        <request index="8" response="0000000000" foes="0001111100" cont="0"/>
        <request index="9" response="0000000010" foes="0001110110" cont="1"/>
    </junction>
    <junction id="J4" type="traffic_light" x="2900.00" y="-2900.00" incLanes="-E14_0 E4_0 E3_0" intLanes=":J4_0_0 :J4_1_0 :J4_10_0 :J4_3_0 :J4_4_0 :J4_11_0 :J4_6_0 :J4_7_0 :J4_7_1 :J4_9_0" shape="2907.09,-2896.80 2907.09,-2903.20 2904.92,-2903.31 2903.15,-2903.64 2901.77,-2904.20 2900.79,-2904.98 2900.20,-2905.98 2900.00,-2907.20 2893.60,-2907.20 2893.16,-2904.50 2892.61,-2903.51 2891.83,-2902.76 2890.84,-2902.25 2889.62,-2901.99 2890.34,-2895.56 2893.84,-2895.51 2895.05,-2895.09 2895.90,-2894.41 2896.39,-2893.47 2896.52,-2892.26 2902.92,-2892.04 2903.46,-2894.68 2904.05,-2895.61 2904.85,-2896.27 2905.86,-2896.67">
        <request index="0" response="0000000000" foes="0000100000" cont="0"/>
        <request index="1" response="0000000000" foes="1111100000" cont="0"/>
        <request index="2" response="0000010000" foes="1110010000" cont="1"/>
        <request index="3" response="0000000000" foes="0110000000" cont="0"/>
        <request index="4" response="0000000000" foes="1110000100" cont="0"/>
        <request index="5" response="0000000011" foes="1110000011" cont="1"/>
        <request index="6" response="0000000010" foes="0000000010" cont="0"/>
        <request index="7" response="0000111110" foes="0000111110" cont="0"/>
        <request index="8" response="0000111110" foes="0000111110" cont="0"/>
        <request index="9" response="0000110110" foes="0000110110" cont="0"/>
    </junction>
    <junction id="J5" type="traffic_light" x="-103.13" y="-1900.66" incLanes="-E5_0 -E4_0 E11_0" intLanes=":J5_0_0 :J5_1_0 :J5_1_1 :J5_3_0 :J5_4_0 :J5_5_0 :J5_10_0 :J5_7_0 :J5_8_0 :J5_11_0" shape="-106.32,-1893.08 -100.04,-1893.08 -99.53,-1895.90 -98.89,-1896.88 -97.99,-1897.58 -96.84,-1898.00 -95.43,-1898.14 -95.41,-1904.46 -97.63,-1904.91 -98.40,-1905.47 -98.95,-1906.25 -99.27,-1907.25 -99.38,-1908.47 -105.78,-1908.52 -106.30,-1905.63 -106.93,-1904.61 -107.82,-1903.89 -108.95,-1903.45 -110.32,-1903.31 -110.32,-1897.08 -108.10,-1896.63 -107.32,-1896.08 -106.76,-1895.30 -106.43,-1894.30">
        <request index="0" response="0000100000" foes="0000100000" cont="0"/>
        <request index="1" response="1111100000" foes="1111100000" cont="0"/>
        <request index="2" response="1111100000" foes="1111100000" cont="0"/>
        <request index="3" response="1101100000" foes="1101100000" cont="0"/>
        <request index="4" response="0000000000" foes="1000000000" cont="0"/>
        <request index="5" response="0000000000" foes="1000001111" cont="0"/>
        <request index="6" response="0100000000" foes="0100001110" cont="1"/>
        <request index="7" response="0000000000" foes="0000000110" cont="0"/>
        <request index="8" response="0000000000" foes="0001001110" cont="0"/>
        <request index="9" response="0000110000" foes="0000111110" cont="1"/>
    </junction>
    <junction id="J6" type="dead_end" x="2900.00" y="-3000.00" incLanes="E2_0 E2_1" intLanes="" shape="2893.60,-3000.00 2900.00,-3000.00"/>
    <junction id="J8" type="dead_end" x="-500.00" y="100.00" incLanes="-E8_0" intLanes="" shape="-500.00,100.00 -500.00,103.20 -500.00,100.00"/>
    <junction id="J9" type="dead_end" x="-98.40" y="-2032.12" incLanes="E7_0 E7_1" intLanes="" shape="-104.80,-2032.17 -98.40,-2032.12"/>

    <junction id=":J2_10_0" type="internal" x="-97.89" y="100.97" incLanes=":J2_2_0 E8_0" intLanes=":J2_4_0 :J2_4_1 :J2_6_0 :J2_7_0 :J2_8_0"/>
    <junction id=":J2_11_0" type="internal" x="-105.87" y="98.98" incLanes=":J2_9_0 -E6_0" intLanes=":J2_0_0 :J2_1_0 :J2_4_0 :J2_4_1 :J2_6_0"/>
    <junction id=":J3_10_0" type="internal" x="1904.91" y="100.94" incLanes=":J3_2_0 E6_0" intLanes=":J3_4_0 :J3_4_1 :J3_6_0 :J3_7_0 :J3_8_0"/>
    <junction id=":J3_11_0" type="internal" x="1896.84" y="99.04" incLanes=":J3_9_0 -E10_0" intLanes=":J3_0_0 :J3_1_0 :J3_4_0 :J3_4_1 :J3_6_0"/>
    <junction id=":J4_10_0" type="internal" x="2903.29" y="-2898.95" incLanes=":J4_2_0 E4_0" intLanes=":J4_3_0 :J4_4_0 :J4_7_0 :J4_7_1 :J4_9_0"/>
    <junction id=":J4_11_0" type="internal" x="2895.31" y="-2900.24" incLanes=":J4_5_0 -E14_0" intLanes=":J4_0_0 :J4_1_0 :J4_7_0 :J4_7_1 :J4_9_0"/>
    <junction id=":J5_10_0" type="internal" x="-97.57" y="-1900.22" incLanes=":J5_6_0 E11_0" intLanes=":J5_1_0 :J5_1_1 :J5_3_0 :J5_7_0 :J5_8_0"/>
    <junction id=":J5_11_0" type="internal" x="-107.77" y="-1901.35" incLanes=":J5_9_0 -E4_0" intLanes=":J5_1_0 :J5_1_1 :J5_3_0 :J5_4_0 :J5_5_0"/>

    <connection from="-E10" to="E1" fromLane="0" toLane="0" via=":J3_0_0" tl="J3" linkIndex="0" dir="r" state="O"/>
    <connection from="-E10" to="-E6" fromLane="0" toLane="0" via=":J3_1_0" tl="J3" linkIndex="1" dir="s" state="O"/>
    <connection from="-E10" to="E3" fromLane="0" toLane="0" via=":J3_2_0" tl="J3" linkIndex="2" dir="l" state="o"/>
    <connection from="-E14" to="-E3" fromLane="0" toLane="0" via=":J4_0_0" tl="J4" linkIndex="0" dir="r" state="O"/>
    <connection from="-E14" to="-E4" fromLane="0" toLane="0" via=":J4_1_0" tl="J4" linkIndex="1" dir="s" state="O"/>
    <connection from="-E14" to="E2" fromLane="0" toLane="1" via=":J4_2_0" tl="J4" linkIndex="2" dir="l" state="o"/>
    <connection from="-E3" to="E10" fromLane="0" toLane="0" via=":J3_3_0" tl="J3" linkIndex="3" dir="r" state="o"/>
    <connection from="-E3" to="E1" fromLane="0" toLane="0" via=":J3_4_0" tl="J3" linkIndex="4" dir="s" state="o"/>
    <connection from="-E3" to="E1" fromLane="0" toLane="1" via=":J3_4_1" tl="J3" linkIndex="5" dir="s" state="o"/>
    <connection from="-E3" to="-E6" fromLane="0" toLane="0" via=":J3_6_0" tl="J3" linkIndex="6" dir="l" state="o"/>
    <connection from="-E4" to="E5" fromLane="0" toLane="0" via=":J5_4_0" tl="J5" linkIndex="4" dir="r" state="O"/>
    <connection from="-E4" to="-E11" fromLane="0" toLane="0" via=":J5_5_0" tl="J5" linkIndex="5" dir="s" state="O"/>
    <connection from="-E4" to="E7" fromLane="0" toLane="1" via=":J5_6_0" tl="J5" linkIndex="6" dir="l" state="o"/>
    <connection from="-E5" to="-E11" fromLane="0" toLane="0" via=":J5_0_0" tl="J5" linkIndex="0" dir="r" state="o"/>
    <connection from="-E5" to="E7" fromLane="0" toLane="0" via=":J5_1_0" tl="J5" linkIndex="1" dir="s" state="o"/>
    <connection from="-E5" to="E7" fromLane="0" toLane="1" via=":J5_1_1" tl="J5" linkIndex="2" dir="s" state="o"/>
    <connection from="-E5" to="E4" fromLane="0" toLane="0" via=":J5_3_0" tl="J5" linkIndex="3" dir="l" state="o"/>
    <connection from="-E6" to="E0" fromLane="0" toLane="0" via=":J2_0_0" tl="J2" linkIndex="0" dir="r" state="O"/>
    <connection from="-E6" to="-E8" fromLane="0" toLane="0" via=":J2_1_0" tl="J2" linkIndex="1" dir="s" state="O"/>
    <connection from="-E6" to="-E5" fromLane="0" toLane="0" via=":J2_2_0" tl="J2" linkIndex="2" dir="l" state="o"/>
    <connection from="E11" to="E7" fromLane="0" toLane="0" via=":J5_7_0" tl="J5" linkIndex="7" dir="r" state="O"/>
    <connection from="E11" to="E4" fromLane="0" toLane="0" via=":J5_8_0" tl="J5" linkIndex="8" dir="s" state="O"/>
    <connection from="E11" to="E5" fromLane="0" toLane="0" via=":J5_9_0" tl="J5" linkIndex="9" dir="l" state="o"/>
    <connection from="E3" to="-E4" fromLane="0" toLane="0" via=":J4_6_0" tl="J4" linkIndex="6" dir="r" state="o"/>
    <connection from="E3" to="E2" fromLane="0" toLane="0" via=":J4_7_0" tl="J4" linkIndex="7" dir="s" state="o"/>
    <connection from="E3" to="E2" fromLane="0" toLane="1" via=":J4_7_1" tl="J4" linkIndex="8" dir="s" state="o"/>
    <connection from="E3" to="E14" fromLane="0" toLane="0" via=":J4_9_0" tl="J4" linkIndex="9" dir="l" state="o"/>
    <connection from="E4" to="E2" fromLane="0" toLane="0" via=":J4_3_0" tl="J4" linkIndex="3" dir="r" state="O"/>
    <connection from="E4" to="E14" fromLane="0" toLane="0" via=":J4_4_0" tl="J4" linkIndex="4" dir="s" state="O"/>
    <connection from="E4" to="-E3" fromLane="0" toLane="0" via=":J4_5_0" tl="J4" linkIndex="5" dir="l" state="o"/>
    <connection from="E5" to="E6" fromLane="0" toLane="0" via=":J2_3_0" tl="J2" linkIndex="3" dir="r" state="o"/>
    <connection from="E5" to="E0" fromLane="0" toLane="0" via=":J2_4_0" tl="J2" linkIndex="4" dir="s" state="o"/>
    <connection from="E5" to="E0" fromLane="0" toLane="1" via=":J2_4_1" tl="J2" linkIndex="5" dir="s" state="o"/>
    <connection from="E5" to="-E8" fromLane="0" toLane="0" via=":J2_6_0" tl="J2" linkIndex="6" dir="l" state="o"/>
    <connection from="E6" to="E3" fromLane="0" toLane="0" via=":J3_7_0" tl="J3" linkIndex="7" dir="r" state="O"/>
    <connection from="E6" to="E10" fromLane="0" toLane="0" via=":J3_8_0" tl="J3" linkIndex="8" dir="s" state="O"/>
    <connection from="E6" to="E1" fromLane="0" toLane="1" via=":J3_9_0" tl="J3" linkIndex="9" dir="l" state="o"/>
    <connection from="E8" to="-E5" fromLane="0" toLane="0" via=":J2_7_0" tl="J2" linkIndex="7" dir="r" state="O"/>
    <connection from="E8" to="E6" fromLane="0" toLane="0" via=":J2_8_0" tl="J2" linkIndex="8" dir="s" state="O"/>
    <connection from="E8" to="E0" fromLane="0" toLane="1" via=":J2_9_0" tl="J2" linkIndex="9" dir="l" state="o"/>

    <connection from=":J2_0" to="E0" fromLane="0" toLane="0" dir="r" state="M"/>
    <connection from=":J2_1" to="-E8" fromLane="0" toLane="0" dir="s" state="M"/>
    <connection from=":J2_2" to="-E5" fromLane="0" toLane="0" via=":J2_10_0" dir="l" state="m"/>
    <connection from=":J2_10" to="-E5" fromLane="0" toLane="0" dir="l" state="M"/>
    <connection from=":J2_3" to="E6" fromLane="0" toLane="0" dir="r" state="M"/>
    <connection from=":J2_4" to="E0" fromLane="0" toLane="0" dir="s" state="M"/>
    <connection from=":J2_4" to="E0" fromLane="1" toLane="1" dir="s" state="M"/>
    <connection from=":J2_6" to="-E8" fromLane="0" toLane="0" dir="l" state="M"/>
    <connection from=":J2_7" to="-E5" fromLane="0" toLane="0" dir="r" state="M"/>
    <connection from=":J2_8" to="E6" fromLane="0" toLane="0" dir="s" state="M"/>
    <connection from=":J2_9" to="E0" fromLane="0" toLane="1" via=":J2_11_0" dir="l" state="m"/>
    <connection from=":J2_11" to="E0" fromLane="0" toLane="1" dir="l" state="M"/>
    <connection from=":J3_0" to="E1" fromLane="0" toLane="0" dir="r" state="M"/>
    <connection from=":J3_1" to="-E6" fromLane="0" toLane="0" dir="s" state="M"/>