<configuration>
    <input>
        <net-file value="map3.net.xml"/>
        <additional-files value="vehicledef.rou.xml"/>
    </input>
    <time>
        <begin value="0"/>
        <end value="3600"/>
    </time>
</configuration>
