<?xml version="1.0" encoding="UTF-8"?>

<!-- generated on 2024-07-07 20:03:47.389400 by routeSampler.py UNKNOWN
<configuration>
    <route-files value="vehicledef.rou.xml"/>
    <turn-files value="turncount.turn.xml"/>
    <turn-ratio-files value="turnratio.turns.xml"/>
    <output-file value="MySumoRoutes.rou.xml"/>
</configuration>
-->

<routes xmlns:xsi="http://www.w3.org/2001/XMLSchema-instance" xsi:noNamespaceSchemaLocation="http://sumo.dlr.de/xsd/routes_file.xsd">
<!-- begin="799.0" end="898.0" -->
    <vehicle id="799_0" depart="799.50">
        <route edges="-E14 -E3 -E6 -E5 -E11"/>
    </vehicle>
    <vehicle id="799_1" depart="799.91">
        <route edges="-E14 -E4 -E11"/>
    </vehicle>
    <vehicle id="799_2" depart="800.53">
        <route edges="E11 E7"/>
    </vehicle>
    <vehicle id="799_3" depart="801.41">
        <route edges="E8 E0"/>
    </vehicle>
    <vehicle id="799_4" depart="801.51">
        <route edges="-E10 E1"/>
    </vehicle>
    <vehicle id="799_5" depart="802.02">
        <route edges="E8 E0"/>
    </vehicle>
    <vehicle id="799_6" depart="802.56">
        <route edges="-E10 -E6 -E5 E7"/>
    </vehicle>
    <vehicle id="799_7" depart="802.70">
        <route edges="-E10 E3 E2"/>
    </vehicle>
    <vehicle id="799_8" depart="804.12">
        <route edges="-E14 E2"/>
    </vehicle>
    <vehicle id="799_9" depart="806.77">
        <route edges="-E14 E2"/>
    </vehicle>
    <vehicle id="799_10" depart="807.33">
        <route edges="-E14 -E3 E10"/>
    </vehicle>
    <vehicle id="799_11" depart="807.45">
        <route edges="-E14 E2"/>
    </vehicle>
    <vehicle id="799_12" depart="808.27">
        <route edges="-E14 -E4 E5 E0"/>
    </vehicle>
    <vehicle id="799_13" depart="808.30">
        <route edges="-E14 -E4 -E11"/>
    </vehicle>
    <vehicle id="799_14" depart="808.62">
        <route edges="-E10 E1"/>
    </vehicle>
    <vehicle id="799_15" depart="809.05">
        <route edges="E11 E4 E14"/>
    </vehicle>
    <vehicle id="799_16" depart="811.58">
        <route edges="E8 E0"/>
    </vehicle>
    <vehicle id="799_17" depart="812.87">
        <route edges="E8 E0"/>
    </vehicle>
    <vehicle id="799_18" depart="814.49">
        <route edges="E8 E0"/>
    </vehicle>
    <vehicle id="799_19" depart="814.92">
        <route edges="E8 E0"/>
    </vehicle>
    <vehicle id="799_20" depart="815.00">
        <route edges="-E14 E2"/>
    </vehicle>
    <vehicle id="799_21" depart="815.78">
        <route edges="E11 E5 -E8"/>
    </vehicle>
    <vehicle id="799_22" depart="816.16">
        <route edges="E8 E6 E3 -E4 E7"/>
    </vehicle>
    <vehicle id="799_23" depart="816.53">
        <route edges="-E10 -E6 -E5 E7"/>
    </vehicle>
    <vehicle id="799_24" depart="818.33">
        <route edges="-E14 -E3 E10"/>
    </vehicle>
    <vehicle id="799_25" depart="820.37">
        <route edges="E8 -E5 E4 E2"/>
    </vehicle>
    <vehicle id="799_26" depart="821.20">
        <route edges="E11 E7"/>
    </vehicle>
    <vehicle id="799_27" depart="822.49">
        <route edges="E8 E0"/>
    </vehicle>
    <vehicle id="799_28" depart="823.15">
        <route edges="E11 E5 E6 E3 E2"/>
    </vehicle>
    <vehicle id="799_29" depart="823.77">
        <route edges="E11 E7"/>
    </vehicle>
    <vehicle id="799_30" depart="825.26">
        <route edges="E11 E4 E14"/>
    </vehicle>
    <vehicle id="799_31" depart="825.81">
        <route edges="-E14 -E4 -E11"/>
    </vehicle>
    <vehicle id="799_32" depart="826.80">
        <route edges="-E14 E2"/>
    </vehicle>
    <vehicle id="799_33" depart="827.37">
        <route edges="E11 E4 -E3 E1"/>
    </vehicle>
    <vehicle id="799_34" depart="828.07">
        <route edges="E11 E4 -E3 -E6 -E8"/>
    </vehicle>
    <vehicle id="799_35" depart="828.15">
        <route edges="-E14 -E4 E5 -E8"/>
    </vehicle>
    <vehicle id="799_36" depart="830.38">
        <route edges="E11 E4 E14"/>
    </vehicle>
    <vehicle id="799_37" depart="830.97">
        <route edges="E8 E0"/>
    </vehicle>
    <vehicle id="799_38" depart="831.21">
        <route edges="-E14 -E4 E7"/>
    </vehicle>
    <vehicle id="799_39" depart="832.46">
        <route edges="-E10 -E6 -E5 E7"/>
    </vehicle>
    <vehicle id="799_40" depart="832.56">
        <route edges="E8 -E5 E7"/>
    </vehicle>
    <vehicle id="799_41" depart="833.57">
        <route edges="-E14 -E4 -E11"/>
    </vehicle>
    <vehicle id="799_42" depart="834.59">
        <route edges="-E10 E3 E2"/>
    </vehicle>
    <vehicle id="799_43" depart="834.66">
        <route edges="E8 E6 E1"/>
    </vehicle>
    <vehicle id="799_44" depart="835.40">
        <route edges="E8 -E5 -E11"/>
    </vehicle>
    <vehicle id="799_45" depart="835.65">
        <route edges="E8 E6 E3 -E4 E5 -E8"/>
    </vehicle>
    <vehicle id="799_46" depart="836.18">
        <route edges="-E14 -E4 E5 E6 E10"/>
    </vehicle>
    <vehicle id="799_47" depart="837.12">
        <route edges="E11 E4 E14"/>
    </vehicle>
    <vehicle id="799_48" depart="837.92">
        <route edges="-E10 -E6 -E5 E4 E14"/>
    </vehicle>
    <vehicle id="799_49" depart="839.49">
        <route edges="E8 E0"/>
    </vehicle>
    <vehicle id="799_50" depart="841.39">
        <route edges="-E10 E3 -E4 E7"/>
    </vehicle>
    <vehicle id="799_51" depart="842.46">
        <route edges="-E14 -E3 E1"/>
    </vehicle>
    <vehicle id="799_52" depart="845.09">
        <route edges="E11 E4 -E3 E10"/>
    </vehicle>
    <vehicle id="799_53" depart="847.76">
        <route edges="E8 E0"/>
    </vehicle>
    <vehicle id="799_54" depart="848.65">
        <route edges="E8 -E5 E4 E2"/>
    </vehicle>
    <vehicle id="799_55" depart="848.76">
        <route edges="-E10 -E6 -E5 -E11"/>
    </vehicle>
    <vehicle id="799_56" depart="849.62">
        <route edges="-E14 -E4 E7"/>
    </vehicle>
    <vehicle id="799_57" depart="850.11">
        <route edges="E11 E7"/>
    </vehicle>
    <vehicle id="799_58" depart="850.31">
        <route edges="E11 E4 -E3 E1"/>
    </vehicle>
    <vehicle id="799_59" depart="850.70">
        <route edges="-E10 -E6 -E5 -E11"/>
    </vehicle>
    <vehicle id="799_60" depart="851.60">
        <route edges="-E10 E1"/>
    </vehicle>
    <vehicle id="799_61" depart="852.52">
        <route edges="E11 E4 E2"/>
    </vehicle>
    <vehicle id="799_62" depart="852.72">
        <route edges="-E14 -E4 E5 E0"/>
    </vehicle>
    <vehicle id="799_63" depart="853.32">
        <route edges="E8 E6 E1"/>
    </vehicle>
    <vehicle id="799_64" depart="853.37">
        <route edges="E11 E4 E2"/>
    </vehicle>
    <vehicle id="799_65" depart="854.12">
        <route edges="E11 E4 E2"/>
    </vehicle>
    <vehicle id="799_66" depart="855.26">
        <route edges="-E10 -E6 -E5 E7"/>
    </vehicle>
    <vehicle id="799_67" depart="855.44">
        <route edges="-E10 -E6 -E5 E7"/>
    </vehicle>
    <vehicle id="799_68" depart="856.11">
        <route edges="-E14 -E4 -E11"/>
    </vehicle>
    <vehicle id="799_69" depart="856.25">
        <route edges="-E10 E3 E14"/>
    </vehicle>
    <vehicle id="799_70" depart="857.49">
        <route edges="E11 E4 E2"/>
    </vehicle>
    <vehicle id="799_71" depart="859.04">
        <route edges="-E14 -E4 E5 E6 E10"/>
    </vehicle>
    <vehicle id="799_72" depart="859.89">
        <route edges="-E14 -E4 E5 E6 E10"/>
    </vehicle>
    <vehicle id="799_73" depart="860.67">
        <route edges="E11 E7"/>
    </vehicle>
    <vehicle id="799_74" depart="861.48">
        <route edges="-E10 -E6 -E5 E4 E14"/>
    </vehicle>
    <vehicle id="799_75" depart="862.11">
        <route edges="-E10 E1"/>
    </vehicle>
    <vehicle id="799_76" depart="862.56">
        <route edges="E11 E7"/>
    </vehicle>
    <vehicle id="799_77" depart="862.90">
        <route edges="E8 -E5 E7"/>
    </vehicle>
    <vehicle id="799_78" depart="863.31">
        <route edges="-E14 -E4 -E11"/>
    </vehicle>
    <vehicle id="799_79" depart="863.35">
        <route edges="-E14 E2"/>
    </vehicle>
    <vehicle id="799_80" depart="863.54">
        <route edges="-E10 -E6 -E5 -E11"/>
    </vehicle>
    <vehicle id="799_81" depart="864.10">
        <route edges="-E14 -E3 -E6 -E5 E4 E14"/>
    </vehicle>
    <vehicle id="799_82" depart="864.69">
        <route edges="E8 E0"/>
    </vehicle>
    <vehicle id="799_83" depart="867.50">
        <route edges="-E14 -E4 E7"/>
    </vehicle>
    <vehicle id="799_84" depart="867.90">
        <route edges="-E10 -E6 -E5 E7"/>
    </vehicle>
    <vehicle id="799_85" depart="867.91">
        <route edges="-E10 -E6 -E5 -E11"/>
    </vehicle>
    <vehicle id="799_86" depart="868.00">
        <route edges="-E10 E3 -E4 E7"/>
    </vehicle>
    <vehicle id="799_87" depart="868.49">
        <route edges="E8 E0"/>
    </vehicle>
    <vehicle id="799_88" depart="868.55">
        <route edges="E8 E0"/>
    </vehicle>
    <vehicle id="799_89" depart="869.51">
        <route edges="-E10 -E6 -E5 E4 E14"/>
    </vehicle>
    <vehicle id="799_90" depart="870.52">
        <route edges="E11 E4 E2"/>
    </vehicle>
    <vehicle id="799_91" depart="870.87">
        <route edges="E8 E0"/>
    </vehicle>
    <vehicle id="799_92" depart="870.88">
        <route edges="-E10 -E6 -E5 E7"/>
    </vehicle>
    <vehicle id="799_93" depart="872.34">
        <route edges="-E14 -E3 E10"/>
    </vehicle>
    <vehicle id="799_94" depart="872.90">
        <route edges="E8 E6 E3 E2"/>
    </vehicle>
    <vehicle id="799_95" depart="875.23">
        <route edges="E11 E4 -E3 E1"/>
    </vehicle>
    <vehicle id="799_96" depart="876.21">
        <route edges="-E10 E1"/>
    </vehicle>
    <vehicle id="799_97" depart="877.69">
        <route edges="-E14 -E4 E7"/>
    </vehicle>
    <vehicle id="799_98" depart="877.72">
        <route edges="-E10 -E6 -E5 E7"/>
    </vehicle>
    <vehicle id="799_99" depart="877.78">
        <route edges="E8 E0"/>
    </vehicle>
    <vehicle id="799_100" depart="878.03">
        <route edges="E11 E5 -E8"/>
    </vehicle>
    <vehicle id="799_101" depart="879.13">
        <route edges="E11 E7"/>
    </vehicle>
    <vehicle id="799_102" depart="879.20">
        <route edges="E11 E4 E14"/>
    </vehicle>
    <vehicle id="799_103" depart="880.44">
        <route edges="-E14 -E4 -E11"/>
    </vehicle>
    <vehicle id="799_104" depart="881.76">
        <route edges="E8 E0"/>
    </vehicle>
    <vehicle id="799_105" depart="883.07">
        <route edges="E11 E4 -E3 -E6 -E5 -E11"/>
    </vehicle>
    <vehicle id="799_106" depart="883.26">
        <route edges="E11 E5 -E8"/>
    </vehicle>
    <vehicle id="799_107" depart="883.45">
        <route edges="-E10 E1"/>
    </vehicle>
    <vehicle id="799_108" depart="884.84">
        <route edges="E11 E4 -E3 E1"/>
    </vehicle>
    <vehicle id="799_109" depart="885.86">
        <route edges="-E10 E3 E14"/>
    </vehicle>
    <vehicle id="799_110" depart="886.82">
        <route edges="-E10 -E6 -E5 -E11"/>
    </vehicle>
    <vehicle id="799_111" depart="887.11">
        <route edges="-E14 -E4 E5 E6 E10"/>
    </vehicle>
    <vehicle id="799_112" depart="887.31">
        <route edges="E8 E0"/>
    </vehicle>
    <vehicle id="799_113" depart="887.81">
        <route edges="E11 E4 E14"/>
    </vehicle>
    <vehicle id="799_114" depart="887.96">
        <route edges="E11 E4 -E3 E1"/>
    </vehicle>
    <vehicle id="799_115" depart="889.41">
        <route edges="-E10 -E6 -E5 -E11"/>
    </vehicle>
    <vehicle id="799_116" depart="889.57">
        <route edges="E8 E0"/>
    </vehicle>
    <vehicle id="799_117" depart="890.90">
        <route edges="-E10 E3 E2"/>
    </vehicle>
    <vehicle id="799_118" depart="891.68">
        <route edges="E11 E5 E0"/>
    </vehicle>
    <vehicle id="799_119" depart="892.11">
        <route edges="E11 E5 E0"/>
    </vehicle>
    <vehicle id="799_120" depart="893.44">
        <route edges="E8 E6 E10"/>
    </vehicle>
    <vehicle id="799_121" depart="894.30">
        <route edges="-E14 -E4 -E11"/>
    </vehicle>
    <vehicle id="799_122" depart="894.40">
        <route edges="E8 E0"/>
    </vehicle>
    <vehicle id="799_123" depart="894.70">
        <route edges="-E10 -E6 -E5 E7"/>
    </vehicle>
    <vehicle id="799_124" depart="895.33">
        <route edges="-E14 E2"/>
    </vehicle>
    <vehicle id="799_125" depart="895.61">
        <route edges="-E10 -E6 -E5 E4 E2"/>
    </vehicle>
    <vehicle id="799_126" depart="897.02">
        <route edges="E8 -E5 E4 -E3 -E6 -E8"/>
    </vehicle>
<!-- begin="898.0" end="997.0" -->
    <vehicle id="898_0" depart="899.79">
        <route edges="E8 E0"/>
    </vehicle>
    <vehicle id="898_1" depart="899.99">
        <route edges="-E14 -E4 E5 E6 E3 E14"/>
    </vehicle>
    <vehicle id="898_2" depart="901.32">
        <route edges="-E14 -E4 E5 -E8"/>
    </vehicle>
    <vehicle id="898_3" depart="901.63">
        <route edges="E11 E4 E2"/>
    </vehicle>
    <vehicle id="898_4" depart="903.13">
        <route edges="E8 -E5 E4 E2"/>
    </vehicle>
    <vehicle id="898_5" depart="904.27">
        <route edges="-E10 E1"/>
    </vehicle>
    <vehicle id="898_6" depart="904.58">
        <route edges="-E10 E1"/>
    </vehicle>
    <vehicle id="898_7" depart="905.94">
        <route edges="-E14 -E3 E1"/>
    </vehicle>
    <vehicle id="898_8" depart="906.61">
        <route edges="-E10 -E6 -E5 E7"/>
    </vehicle>
    <vehicle id="898_9" depart="908.08">
        <route edges="E8 E0"/>
    </vehicle>
    <vehicle id="898_10" depart="908.61">
        <route edges="E11 E7"/>
    </vehicle>
    <vehicle id="898_11" depart="908.95">
        <route edges="E8 E0"/>
    </vehicle>
    <vehicle id="898_12" depart="909.09">
        <route edges="E8 -E5 E7"/>
    </vehicle>
    <vehicle id="898_13" depart="909.37">
        <route edges="-E10 E1"/>
    </vehicle>
    <vehicle id="898_14" depart="909.57">
        <route edges="-E10 -E6 -E5 -E11"/>
    </vehicle>
    <vehicle id="898_15" depart="909.86">
        <route edges="-E10 E1"/>
    </vehicle>
    <vehicle id="898_16" depart="910.31">
        <route edges="E11 E7"/>
    </vehicle>
    <vehicle id="898_17" depart="910.62">
        <route edges="E8 -E5 -E11"/>
    </vehicle>
    <vehicle id="898_18" depart="910.63">
        <route edges="E11 E4 E2"/>
    </vehicle>
    <vehicle id="898_19" depart="911.31">
        <route edges="-E14 -E4 -E11"/>
    </vehicle>
    <vehicle id="898_20" depart="911.79">
        <route edges="-E10 -E6 -E5 -E11"/>
    </vehicle>
    <vehicle id="898_21" depart="911.84">
        <route edges="-E10 E1"/>
    </vehicle>
    <vehicle id="898_22" depart="912.84">
        <route edges="E11 E7"/>
    </vehicle>
    <vehicle id="898_23" depart="913.02">
        <route edges="E11 E4 E14"/>
    </vehicle>
    <vehicle id="898_24" depart="913.10">
        <route edges="-E10 -E6 -E5 E4 E2"/>
    </vehicle>
    <vehicle id="898_25" depart="913.13">
        <route edges="E8 -E5 E7"/>
    </vehicle>
    <vehicle id="898_26" depart="913.18">
        <route edges="-E14 -E3 E1"/>
    </vehicle>
    <vehicle id="898_27" depart="913.28">
        <route edges="-E14 -E3 E1"/>
    </vehicle>
    <vehicle id="898_28" depart="913.91">
        <route edges="E11 E4 E2"/>
    </vehicle>
    <vehicle id="898_29" depart="914.20">
        <route edges="E8 E0"/>
    </vehicle>
    <vehicle id="898_30" depart="914.26">
        <route edges="E8 E0"/>
    </vehicle>
    <vehicle id="898_31" depart="914.92">
        <route edges="E11 E4 E2"/>
    </vehicle>
    <vehicle id="898_32" depart="915.16">
        <route edges="E8 -E5 E7"/>
    </vehicle>
    <vehicle id="898_33" depart="915.94">
        <route edges="E8 E0"/>
    </vehicle>
    <vehicle id="898_34" depart="915.98">
        <route edges="-E14 -E4 -E11"/>
    </vehicle>
    <vehicle id="898_35" depart="916.47">
        <route edges="E8 E0"/>
    </vehicle>
    <vehicle id="898_36" depart="916.52">
        <route edges="-E14 -E4 E5 -E8"/>
    </vehicle>
    <vehicle id="898_37" depart="917.96">
        <route edges="E11 E7"/>
    </vehicle>
    <vehicle id="898_38" depart="918.93">
        <route edges="-E10 -E6 -E5 E4 E14"/>
    </vehicle>
    <vehicle id="898_39" depart="920.70">
        <route edges="E11 E4 E14"/>
    </vehicle>
    <vehicle id="898_40" depart="920.99">
        <route edges="-E10 E1"/>
    </vehicle>
    <vehicle id="898_41" depart="921.49">
        <route edges="-E14 -E4 E7"/>
    </vehicle>
    <vehicle id="898_42" depart="922.00">
        <route edges="-E10 -E6 -E5 E7"/>
    </vehicle>
    <vehicle id="898_43" depart="922.00">
        <route edges="E8 -E5 E4 -E3 E1"/>
    </vehicle>
    <vehicle id="898_44" depart="922.35">
        <route edges="E8 -E5 E7"/>
    </vehicle>
    <vehicle id="898_45" depart="922.60">
        <route edges="-E14 -E3 E10"/>
    </vehicle>
    <vehicle id="898_46" depart="922.93">
        <route edges="-E10 E1"/>
    </vehicle>
    <vehicle id="898_47" depart="922.99">
        <route edges="E8 -E5 E4 E14"/>
    </vehicle>
    <vehicle id="898_48" depart="923.21">
        <route edges="E8 E0"/>
    </vehicle>
    <vehicle id="898_49" depart="923.53">
        <route edges="-E14 -E3 -E6 E0"/>
    </vehicle>
    <vehicle id="898_50" depart="924.66">
        <route edges="E11 E4 -E3 E1"/>
    </vehicle>
    <vehicle id="898_51" depart="925.72">
        <route edges="E8 -E5 -E11"/>
    </vehicle>
    <vehicle id="898_52" depart="926.09">
        <route edges="E8 E0"/>
    </vehicle>
    <vehicle id="898_53" depart="926.22">
        <route edges="E11 E7"/>
    </vehicle>
    <vehicle id="898_54" depart="926.57">
        <route edges="-E14 -E4 -E11"/>
    </vehicle>
    <vehicle id="898_55" depart="927.84">
        <route edges="-E10 E1"/>
    </vehicle>
    <vehicle id="898_56" depart="928.86">
        <route edges="E8 E0"/>
    </vehicle>
    <vehicle id="898_57" depart="929.89">
        <route edges="E11 E4 -E3 E10"/>
    </vehicle>
    <vehicle id="898_58" depart="929.91">
        <route edges="E8 E0"/>
    </vehicle>
    <vehicle id="898_59" depart="930.04">
        <route edges="-E10 -E6 -E5 E4 -E3 E10"/>
    </vehicle>
    <vehicle id="898_60" depart="930.42">
        <route edges="E11 E4 -E3 -E6 -E8"/>
    </vehicle>
    <vehicle id="898_61" depart="931.16">
        <route edges="-E10 E1"/>
    </vehicle>
    <vehicle id="898_62" depart="931.32">
        <route edges="-E10 -E6 -E5 -E11"/>
    </vehicle>
    <vehicle id="898_63" depart="931.87">
        <route edges="E11 E4 -E3 E1"/>
    </vehicle>
    <vehicle id="898_64" depart="932.22">
        <route edges="E11 E7"/>
    </vehicle>
    <vehicle id="898_65" depart="932.54">
        <route edges="-E10 -E6 -E5 E4 E2"/>
    </vehicle>
    <vehicle id="898_66" depart="933.25">
        <route edges="-E14 -E3 E1"/>
    </vehicle>
    <vehicle id="898_67" depart="933.52">
        <route edges="E11 E7"/>
    </vehicle>
    <vehicle id="898_68" depart="933.95">
        <route edges="E8 E0"/>
    </vehicle>
    <vehicle id="898_69" depart="935.32">
        <route edges="-E14 -E3 E10"/>
    </vehicle>
    <vehicle id="898_70" depart="935.35">
        <route edges="-E14 -E4 E7"/>
    </vehicle>
    <vehicle id="898_71" depart="936.01">
        <route edges="-E14 -E4 E7"/>
    </vehicle>
    <vehicle id="898_72" depart="936.85">
        <route edges="-E14 -E3 E10"/>
    </vehicle>
    <vehicle id="898_73" depart="937.33">
        <route edges="E11 E7"/>
    </vehicle>
    <vehicle id="898_74" depart="937.39">
        <route edges="-E14 -E4 E7"/>
    </vehicle>
    <vehicle id="898_75" depart="937.68">
        <route edges="E8 -E5 E4 E14"/>
    </vehicle>
    <vehicle id="898_76" depart="938.63">
        <route edges="-E10 -E6 -E5 E4 E2"/>
    </vehicle>
    <vehicle id="898_77" depart="938.77">
        <route edges="E11 E4 E14"/>
    </vehicle>
    <vehicle id="898_78" depart="939.99">
        <route edges="E8 E0"/>
    </vehicle>
    <vehicle id="898_79" depart="940.12">
        <route edges="E11 E7"/>
    </vehicle>
    <vehicle id="898_80" depart="940.73">
        <route edges="-E14 -E3 E10"/>
    </vehicle>
    <vehicle id="898_81" depart="941.47">
        <route edges="-E14 -E4 -E11"/>
    </vehicle>
    <vehicle id="898_82" depart="942.29">
        <route edges="E11 E4 E2"/>
    </vehicle>
    <vehicle id="898_83" depart="943.74">
        <route edges="E8 E0"/>
    </vehicle>
    <vehicle id="898_84" depart="943.79">
        <route edges="E11 E4 E14"/>
    </vehicle>
    <vehicle id="898_85" depart="943.81">
        <route edges="E11 E4 E14"/>
    </vehicle>
    <vehicle id="898_86" depart="944.69">
        <route edges="-E14 -E4 E5 E6 E3 E14"/>
    </vehicle>
    <vehicle id="898_87" depart="945.63">
        <route edges="E11 E4 -E3 -E6 -E8"/>
    </vehicle>
    <vehicle id="898_88" depart="947.35">
        <route edges="E8 -E5 E7"/>
    </vehicle>
    <vehicle id="898_89" depart="947.77">
        <route edges="-E14 -E3 E1"/>
    </vehicle>
    <vehicle id="898_90" depart="948.08">
        <route edges="-E10 E1"/>
    </vehicle>
    <vehicle id="898_91" depart="948.25">
        <route edges="E8 E0"/>
    </vehicle>
    <vehicle id="898_92" depart="948.66">
        <route edges="-E14 -E4 -E11"/>
    </vehicle>
    <vehicle id="898_93" depart="949.78">
        <route edges="E11 E7"/>
    </vehicle>
    <vehicle id="898_94" depart="949.93">
        <route edges="-E10 -E6 -E5 E7"/>
    </vehicle>
    <vehicle id="898_95" depart="950.68">
        <route edges="-E10 -E6 -E5 -E11"/>
    </vehicle>
    <vehicle id="898_96" depart="950.73">
        <route edges="E8 -E5 E7"/>
    </vehicle>
    <vehicle id="898_97" depart="950.73">
        <route edges="-E14 -E4 -E11"/>
    </vehicle>
    <vehicle id="898_98" depart="950.81">
        <route edges="-E10 -E6 -E5 E7"/>
    </vehicle>
    <vehicle id="898_99" depart="951.17">
        <route edges="-E10 -E6 -E5 E7"/>
    </vehicle>
    <vehicle id="898_100" depart="951.73">
        <route edges="E11 E7"/>
    </vehicle>
    <vehicle id="898_101" depart="951.81">
        <route edges="-E14 -E4 E5 E0"/>
    </vehicle>
    <vehicle id="898_102" depart="953.12">
        <route edges="E8 E0"/>
    </vehicle>
    <vehicle id="898_103" depart="953.95">
        <route edges="E8 E0"/>
    </vehicle>
    <vehicle id="898_104" depart="954.42">
        <route edges="E8 E0"/>
    </vehicle>
    <vehicle id="898_105" depart="954.51">
        <route edges="E11 E4 E14"/>
    </vehicle>
    <vehicle id="898_106" depart="954.59">
        <route edges="-E10 E1"/>
    </vehicle>
    <vehicle id="898_107" depart="954.87">
        <route edges="E8 E0"/>
    </vehicle>
    <vehicle id="898_108" depart="955.05">
        <route edges="-E14 -E4 -E11"/>
    </vehicle>
    <vehicle id="898_109" depart="955.54">
        <route edges="-E14 -E4 -E11"/>
    </vehicle>
    <vehicle id="898_110" depart="955.76">
        <route edges="-E10 -E6 -E5 E7"/>
    </vehicle>
    <vehicle id="898_111" depart="956.04">
        <route edges="-E14 -E3 E10"/>
    </vehicle>
    <vehicle id="898_112" depart="956.10">
        <route edges="-E14 -E3 -E6 -E5 -E11"/>
    </vehicle>
    <vehicle id="898_113" depart="956.77">
        <route edges="E8 E0"/>
    </vehicle>
    <vehicle id="898_114" depart="956.97">
        <route edges="E11 E4 E14"/>
    </vehicle>
    <vehicle id="898_115" depart="957.97">
        <route edges="E8 -E5 E7"/>
    </vehicle>
    <vehicle id="898_116" depart="958.06">
        <route edges="-E10 -E6 -E5 E4 E14"/>
    </vehicle>
    <vehicle id="898_117" depart="958.45">
        <route edges="-E14 -E4 -E11"/>
    </vehicle>
    <vehicle id="898_118" depart="958.53">
        <route edges="-E10 -E6 -E5 E7"/>
    </vehicle>
    <vehicle id="898_119" depart="959.39">
        <route edges="E11 E4 -E3 -E6 -E8"/>
    </vehicle>
    <vehicle id="898_120" depart="959.80">
        <route edges="E8 E0"/>
    </vehicle>
    <vehicle id="898_121" depart="960.14">
        <route edges="-E14 -E3 -E6 E0"/>
    </vehicle>
    <vehicle id="898_122" depart="961.47">
        <route edges="E11 E7"/>
    </vehicle>
    <vehicle id="898_123" depart="961.95">
        <route edges="-E10 -E6 -E5 E7"/>
    </vehicle>
    <vehicle id="898_124" depart="963.85">
        <route edges="E8 E0"/>
    </vehicle>
    <vehicle id="898_125" depart="964.20">
        <route edges="-E14 -E4 E5 E6 E1"/>
    </vehicle>
    <vehicle id="898_126" depart="965.23">
        <route edges="-E14 -E3 -E6 -E5 -E11"/>
    </vehicle>
    <vehicle id="898_127" depart="965.47">
        <route edges="-E10 E1"/>
    </vehicle>
    <vehicle id="898_128" depart="966.70">
        <route edges="-E14 -E4 E7"/>
    </vehicle>
    <vehicle id="898_129" depart="966.97">
        <route edges="-E14 -E4 E5 E0"/>
    </vehicle>
    <vehicle id="898_130" depart="968.02">
        <route edges="E8 E0"/>
    </vehicle>
    <vehicle id="898_131" depart="968.62">
        <route edges="-E14 -E4 E7"/>
    </vehicle>
    <vehicle id="898_132" depart="969.28">
        <route edges="-E10 -E6 -E5 E7"/>
    </vehicle>
    <vehicle id="898_133" depart="969.50">
        <route edges="-E10 -E6 -E5 E7"/>
    </vehicle>
    <vehicle id="898_134" depart="970.36">
        <route edges="E11 E7"/>
    </vehicle>
    <vehicle id="898_135" depart="970.91">
        <route edges="-E14 -E4 E5 E6 E1"/>
    </vehicle>
    <vehicle id="898_136" depart="971.37">
        <route edges="E11 E4 E14"/>
    </vehicle>
    <vehicle id="898_137" depart="971.65">
        <route edges="-E10 -E6 -E5 -E11"/>
    </vehicle>
    <vehicle id="898_138" depart="971.80">
        <route edges="-E14 -E4 -E11"/>
    </vehicle>
    <vehicle id="898_139" depart="972.00">
        <route edges="-E10 E1"/>
    </vehicle>
    <vehicle id="898_140" depart="972.01">
        <route edges="E11 E4 E14"/>
    </vehicle>
    <vehicle id="898_141" depart="973.26">
        <route edges="E8 -E5 -E11"/>
    </vehicle>
    <vehicle id="898_142" depart="973.48">
        <route edges="E8 E0"/>
    </vehicle>
    <vehicle id="898_143" depart="974.18">
        <route edges="-E10 -E6 -E5 E7"/>
    </vehicle>
    <vehicle id="898_144" depart="976.07">
        <route edges="-E14 -E4 E7"/>
    </vehicle>
    <vehicle id="898_145" depart="976.13">
        <route edges="-E10 E1"/>
    </vehicle>
    <vehicle id="898_146" depart="976.61">
        <route edges="-E10 E1"/>
    </vehicle>
    <vehicle id="898_147" depart="976.73">
        <route edges="E11 E4 E14"/>
    </vehicle>
    <vehicle id="898_148" depart="976.93">
        <route edges="-E14 -E4 E5 -E8"/>
    </vehicle>
    <vehicle id="898_149" depart="978.18">
        <route edges="-E10 -E6 -E5 E4 E14"/>
    </vehicle>
    <vehicle id="898_150" depart="978.64">
        <route edges="-E10 -E6 -E5 -E11"/>
    </vehicle>
    <vehicle id="898_151" depart="978.84">
        <route edges="E11 E4 -E3 E1"/>
    </vehicle>
    <vehicle id="898_152" depart="978.89">
        <route edges="E8 -E5 -E11"/>
    </vehicle>
    <vehicle id="898_153" depart="979.30">
        <route edges="-E14 -E4 E7"/>
    </vehicle>
    <vehicle id="898_154" depart="980.23">
        <route edges="-E10 -E6 -E5 -E11"/>
    </vehicle>
    <vehicle id="898_155" depart="981.34">
        <route edges="E11 E4 E2"/>
    </vehicle>
    <vehicle id="898_156" depart="981.80">
        <route edges="E11 E4 -E3 E1"/>
    </vehicle>
    <vehicle id="898_157" depart="983.69">
        <route edges="-E14 -E4 E5 -E8"/>
    </vehicle>
    <vehicle id="898_158" depart="984.34">
        <route edges="-E14 -E3 -E6 -E5 -E11"/>
    </vehicle>
    <vehicle id="898_159" depart="984.80">
        <route edges="E8 E0"/>
    </vehicle>
    <vehicle id="898_160" depart="984.84">
        <route edges="E8 -E5 -E11"/>
    </vehicle>
    <vehicle id="898_161" depart="986.16">
        <route edges="-E10 -E6 -E5 -E11"/>
    </vehicle>
    <vehicle id="898_162" depart="986.50">
        <route edges="-E10 E1"/>
    </vehicle>
    <vehicle id="898_163" depart="986.63">
        <route edges="E8 E0"/>
    </vehicle>
    <vehicle id="898_164" depart="986.78">
        <route edges="E8 E0"/>
    </vehicle>
    <vehicle id="898_165" depart="987.06">
        <route edges="E11 E7"/>
    </vehicle>
    <vehicle id="898_166" depart="987.74">
        <route edges="-E14 -E3 -E6 -E5 E7"/>
    </vehicle>
    <vehicle id="898_167" depart="987.94">
        <route edges="E11 E4 E2"/>
    </vehicle>
    <vehicle id="898_168" depart="989.33">
        <route edges="E11 E7"/>
    </vehicle>
    <vehicle id="898_169" depart="989.63">
        <route edges="E11 E7"/>
    </vehicle>
    <vehicle id="898_170" depart="990.01">
        <route edges="E11 E4 E14"/>
    </vehicle>
    <vehicle id="898_171" depart="990.02">
        <route edges="E11 E4 -E3 E1"/>
    </vehicle>
    <vehicle id="898_172" depart="990.28">
        <route edges="E8 E0"/>
    </vehicle>
    <vehicle id="898_173" depart="990.50">
        <route edges="-E14 -E4 -E11"/>
    </vehicle>
    <vehicle id="898_174" depart="990.90">
        <route edges="E11 E7"/>
    </vehicle>
    <vehicle id="898_175" depart="991.04">
        <route edges="E11 E4 -E3 E1"/>
    </vehicle>
    <vehicle id="898_176" depart="991.78">
        <route edges="-E10 -E6 -E5 E4 E14"/>
    </vehicle>
    <vehicle id="898_177" depart="993.54">
        <route edges="E8 E0"/>
    </vehicle>
    <vehicle id="898_178" depart="993.98">
        <route edges="-E10 -E6 -E5 E7"/>
    </vehicle>
    <vehicle id="898_179" depart="995.26">
        <route edges="-E14 -E3 -E6 E0"/>
    </vehicle>
    <vehicle id="898_180" depart="995.67">
        <route edges="E11 E4 -E3 E10"/>
    </vehicle>
    <vehicle id="898_181" depart="996.01">
        <route edges="-E10 -E6 -E5 E7"/>
    </vehicle>
<!-- begin="997.0" end="1096.0" -->
    <vehicle id="997_0" depart="997.02">
        <route edges="-E10 E1"/>
    </vehicle>
    <vehicle id="997_1" depart="997.33">
        <route edges="-E10 -E6 -E5 E7"/>
    </vehicle>
    <vehicle id="997_2" depart="997.50">
        <route edges="E11 E7"/>
    </vehicle>