<?xml version="1.0" encoding="UTF-8"?>

<!-- generated on 2024-07-07 00:34:19.580973 by routeSampler.py UNKNOWN
<configuration>
    <route-files value="vehicledef.rou.xml"/>
    <turn-files value="turncount.turn.xml"/>
    <turn-ratio-files value="turnratio.turns.xml"/>
    <output-file value="MySumoRoutes.rou.xml"/>
</configuration>
-->

<routes xmlns:xsi="http://www.w3.org/2001/XMLSchema-instance" xsi:noNamespaceSchemaLocation="http://sumo.dlr.de/xsd/routes_file.xsd">
<!-- begin="0.0" end="99.0" -->
    <vehicle id="0_0" depart="3.40">
        <route edges="E11 E4 -E3 E10"/>
    </vehicle>
    <vehicle id="0_1" depart="4.48">
        <route edges="E8 E0"/>
    </vehicle>
    <vehicle id="0_2" depart="8.76">
        <route edges="E8 E6 E3 -E4 E7"/>
    </vehicle>
    <vehicle id="0_3" depart="12.08">
        <route edges="E8 E6 E10"/>
    </vehicle>
    <vehicle id="0_4" depart="18.30">
        <route edges="E11 E4 E14"/>
    </vehicle>
    <vehicle id="0_5" depart="19.40">
        <route edges="E8 -E5 -E11"/>
    </vehicle>
    <vehicle id="0_6" depart="25.62">
        <route edges="E8 E6 E10"/>
    </vehicle>
    <vehicle id="0_7" depart="26.86">
        <route edges="E11 E4 E2"/>
    </vehicle>
    <vehicle id="0_8" depart="27.81">
        <route edges="E11 E4 E2"/>
    </vehicle>
    <vehicle id="0_9" depart="30.86">
        <route edges="E8 E0"/>
    </vehicle>
    <vehicle id="0_10" depart="32.21">
        <route edges="E8 E6 E1"/>
    </vehicle>
    <vehicle id="0_11" depart="35.32">
        <route edges="E8 -E5 E7"/>
    </vehicle>
    <vehicle id="0_12" depart="38.48">
        <route edges="E11 E4 -E3 -E6 E0"/>
    </vehicle>
    <vehicle id="0_13" depart="49.02">
        <route edges="E8 E0"/>
    </vehicle>
    <vehicle id="0_14" depart="51.49">
        <route edges="E11 E4 -E3 E10"/>
    </vehicle>
    <vehicle id="0_15" depart="54.12">
        <route edges="E11 E4 E2"/>
    </vehicle>
    <vehicle id="0_16" depart="59.19">
        <route edges="E8 -E5 E4 E2"/>
    </vehicle>
    <vehicle id="0_17" depart="65.59">
        <route edges="E8 -E5 E4 E14"/>
    </vehicle>
    <vehicle id="0_18" depart="76.74">
        <route edges="E8 -E5 E7"/>
    </vehicle>
    <vehicle id="0_19" depart="82.05">
        <route edges="E8 E0"/>
    </vehicle>
    <vehicle id="0_20" depart="88.59">
        <route edges="E11 E4 E14"/>
    </vehicle>
    <vehicle id="0_21" depart="90.02">
        <route edges="E8 E6 E1"/>
    </vehicle>
    <vehicle id="0_22" depart="91.27">
        <route edges="E11 E4 -E3 E1"/>
    </vehicle>
    <vehicle id="0_23" depart="93.01">
        <route edges="E11 E4 -E3 -E6 E0"/>
    </vehicle>
    <vehicle id="0_24" depart="95.99">
        <route edges="E8 E0"/>
    </vehicle>
</routes>
